@<TRIPOS>MOLECULE
*****
   34    37     0     0     0
SMALL
NO_CHARGES

@<TRIPOS>ATOM
      1 C1          1.9338   -0.9390   -0.0015 C.ar      1 <0>         0.0000
      2 C2          0.8925   -0.2271    0.5751 C.ar      1 <0>         0.0000
      3 C3          7.9376   -0.9332    5.0110 C.ar      1 <0>         0.0000
      4 C4          2.4606    0.6162    8.1908 C.ar      1 <0>         0.0000
      5 C5          7.8047   -1.7170    6.1518 C.ar      1 <0>         0.0000
      6 C6          3.4800    1.4994    8.5286 C.ar      1 <0>         0.0000
      7 C7          3.0723   -1.2223    0.7509 C.ar      1 <0>         0.0000
      8 C8          0.9988    0.1958    1.8989 C.ar      1 <0>         0.0000
      9 C9          6.8062   -0.5659    4.2910 C.ar      1 <0>         0.0000
     10 C10         2.3843    0.1135    6.8966 C.ar      1 <0>         0.0000
     11 C11         6.5285   -2.1042    6.5276 C.ar      1 <0>         0.0000
     12 C12         4.3910    1.8457    7.5437 C.ar      1 <0>         0.0000
     13 C13         3.1886   -0.8044    2.0745 C.ar      1 <0>         0.0000
     14 C14         2.1323   -0.0820    2.6593 C.ar      1 <0>         0.0000
     15 C15         5.5747   -1.0048    4.7500 C.ar      1 <0>         0.0000
     16 C16         3.3442    0.5220    5.9847 C.ar      1 <0>         0.0000
     17 C17         4.3566   -0.6622    4.0538 C.ar      1 <0>         0.0000
     18 C18         3.3285    0.0410    4.6230 C.ar      1 <0>         0.0000
     19 N1          5.4061   -1.7671    5.8537 N.ar      1 <0>         0.0000
     20 N2          4.3492    1.3780    6.2759 N.ar      1 <0>         0.0000
     21 N3          4.2972   -1.0899    2.7798 N.ar      1 <0>         0.0000
     22 N4          2.2113    0.3367    3.9346 N.ar      1 <0>         0.0000
     23 H1          1.8638   -1.2737   -1.0319 H         1 <0>         0.0000
     24 H2          0.0002    0.0005   -0.0001 H         1 <0>         0.0000
     25 H3          8.9210   -0.6103    4.6829 H         1 <0>         0.0000
     26 H4          1.7261    0.3213    8.9342 H         1 <0>         0.0000
     27 H5          8.6726   -2.0176    6.7272 H         1 <0>         0.0000
     28 H6          3.5577    1.9060    9.5303 H         1 <0>         0.0000
     29 H7          3.8818   -1.7815    0.2859 H         1 <0>         0.0000
     30 H8          0.1745    0.7539    2.3385 H         1 <0>         0.0000
     31 H9          6.9008    0.0468    3.4002 H         1 <0>         0.0000
     32 H10         1.5926   -0.5773    6.6248 H         1 <0>         0.0000
     33 H11         6.3701   -2.7159    7.4097 H         1 <0>         0.0000
     34 H12         5.2052    2.5309    7.7554 H         1 <0>         0.0000
@<TRIPOS>BOND
     1    1    2 ar
     2    1    7 ar
     3    2    8 ar
     4    3    5 ar
     5    3    9 ar
     6    4    6 ar
     7    4   10 ar
     8    5   11 ar
     9    6   12 ar
    10    7   13 ar
    11    8   14 ar
    12    9   15 ar
    13   10   16 ar
    14   11   19 ar
    15   12   20 ar
    16   13   14 ar
    17   13   21 ar
    18   14   22 ar
    19   15   17 1
    20   15   19 ar
    21   16   18 1
    22   16   20 ar
    23   17   18 ar
    24   17   21 ar
    25   18   22 ar
    26    1   23 1
    27    2   24 1
    28    3   25 1
    29    4   26 1
    30    5   27 1
    31    6   28 1
    32    7   29 1
    33    8   30 1
    34    9   31 1
    35   10   32 1
    36   11   33 1
    37   12   34 1
