@<TRIPOS>MOLECULE
*****
   41    42     0     0     0
SMALL
NO_CHARGES

@<TRIPOS>ATOM
      1 C1         -5.5752    1.5149   -3.5952 C.ar      1 <0>         0.0000
      2 C2         -4.0530   -3.5329   -2.5004 C.ar      1 <0>         0.0000
      3 C3         -5.9980    0.6557   -2.5811 C.ar      1 <0>         0.0000
      4 C4         -4.3059    2.0906   -3.5376 C.ar      1 <0>         0.0000
      5 C5         -4.2267   -3.8243   -1.1474 C.ar      1 <0>         0.0000
      6 C6         -2.8190   -3.0752   -2.9625 C.ar      1 <0>         0.0000
      7 C7         -5.1516    0.3722   -1.5092 C.ar      1 <0>         0.0000
      8 C8         -3.4595    1.8071   -2.4658 C.ar      1 <0>         0.0000
      9 C9         -3.1664   -3.6580   -0.2565 C.ar      1 <0>         0.0000
     10 C10        -1.7587   -2.9089   -2.0715 C.ar      1 <0>         0.0000
     11 C11        -3.8823    0.9479   -1.4515 C.ar      1 <0>         0.0000
     12 C12        -1.9324   -3.2003   -0.7185 C.ar      1 <0>         0.0000
     13 C13        -2.9806    0.6459   -0.3094 C.2       1 <0>         0.0000
     14 C14         0.4292   -2.5890   -0.1019 C.2       1 <0>         0.0000
     15 C15         0.6165    0.5512    0.1790 C.2       1 <0>         0.0000
     16 C16         1.3022   -2.5407    1.1338 C.3       1 <0>         0.0000
     17 C17         1.4638    0.1856    1.3736 C.3       1 <0>         0.0000
     18 N1         -0.8564   -3.0317    0.1858 N.am      1 <0>         0.0000
     19 N2         -1.6274    0.7428   -0.5718 N.am      1 <0>         0.0000
     20 N3         -0.7377    0.4561    0.4351 N.am      1 <0>         0.0000
     21 O1         -3.4660    0.3182    0.7706 O.2       1 <0>         0.0000
     22 O2          0.8837   -2.2738   -1.1988 O.2       1 <0>         0.0000
     23 O3          1.1160    0.8778   -0.8965 O.2       1 <0>         0.0000
     24 S1          2.5188   -1.2173    0.9369 S.3       1 <0>         0.0000
     25 H1         -6.2342    1.7356   -4.4298 H         1 <0>         0.0000
     26 H2         -4.8782   -3.6630   -3.1945 H         1 <0>         0.0000
     27 H3         -6.9864    0.2077   -2.6260 H         1 <0>         0.0000
     28 H4         -3.9765    2.7593   -4.3275 H         1 <0>         0.0000
     29 H5         -5.1870   -4.1815   -0.7874 H         1 <0>         0.0000
     30 H6         -2.6839   -2.8493   -4.0162 H         1 <0>         0.0000
     31 H7         -5.4912   -0.2987   -0.7243 H         1 <0>         0.0000
     32 H8         -2.4727    2.2614   -2.4312 H         1 <0>         0.0000
     33 H9         -3.3134   -3.8884    0.7957 H         1 <0>         0.0000
     34 H10        -0.8015   -2.5516   -2.4431 H         1 <0>         0.0000
     35 H11         0.6713   -2.3376    2.0045 H         1 <0>         0.0000
     36 H12         1.8175   -3.4901    1.3044 H         1 <0>         0.0000
     37 H13         2.0813    1.0466    1.6459 H         1 <0>         0.0000
     38 H14         0.8474   -0.0791    2.2374 H         1 <0>         0.0000
     39 H15        -1.0462   -3.2611    1.1589 H         1 <0>         0.0000
     40 H16        -1.2241    0.9900   -1.4688 H         1 <0>         0.0000
     41 H17        -1.0701    0.1788    1.3527 H         1 <0>         0.0000
@<TRIPOS>BOND
     1    1    3 ar
     2    1    4 ar
     3    2    5 ar
     4    2    6 ar
     5    3    7 ar
     6    4    8 ar
     7    5    9 ar
     8    6   10 ar
     9    7   11 ar
    10    8   11 ar
    11    9   12 ar
    12   10   12 ar
    13   11   13 1
    14   12   18 1
    15   13   19 am
    16   13   21 2
    17   14   16 1
    18   14   18 am
    19   14   22 2
    20   15   17 1
    21   15   20 am
    22   15   23 2
    23   16   24 1
    24   17   24 1
    25   19   20 1
    26    1   25 1
    27    2   26 1
    28    3   27 1
    29    4   28 1
    30    5   29 1
    31    6   30 1
    32    7   31 1
    33    8   32 1
    34    9   33 1
    35   10   34 1
    36   16   35 1
    37   16   36 1
    38   17   37 1
    39   17   38 1
    40   18   39 1
    41   19   40 1
    42   20   41 1
