@<TRIPOS>MOLECULE
*****
   34    35     0     0     0
SMALL
NO_CHARGES

@<TRIPOS>ATOM
      1 C1          0.0753   -4.6907   -2.5139 C.ar      1 <0>         0.0000
      2 C2          0.7270   -3.4871   -2.7824 C.ar      1 <0>         0.0000
      3 C3         -0.8326   -4.7718   -1.4580 C.ar      1 <0>         0.0000
      4 C4          0.4709   -2.3645   -1.9950 C.ar      1 <0>         0.0000
      5 C5         -1.0887   -3.6492   -0.6706 C.ar      1 <0>         0.0000
      6 C6         -3.4770    1.3226   -3.2653 C.ar      1 <0>         0.0000
      7 C7         -1.6109    2.8179   -2.9206 C.ar      1 <0>         0.0000
      8 C8         -4.0566    2.2464   -4.1350 C.ar      1 <0>         0.0000
      9 C9         -2.1904    3.7417   -3.7903 C.ar      1 <0>         0.0000
     10 C10        -0.4370   -2.4456   -0.9391 C.ar      1 <0>         0.0000
     11 C11        -2.2542    1.6084   -2.6581 C.ar      1 <0>         0.0000
     12 C12        -3.4133    3.4559   -4.3975 C.ar      1 <0>         0.0000
     13 C13        -0.7085   -1.2550   -0.1041 C.2       1 <0>         0.0000
     14 C14        -0.0102    0.0428   -0.3881 C.2       1 <0>         0.0000
     15 C15         1.3077    0.3901    0.2522 C.2       1 <0>         0.0000
     16 C16         1.3288    0.4549    1.7480 C.3       1 <0>         0.0000
     17 N1         -0.4933    0.9433   -1.1871 N.2       1 <0>         0.0000
     18 N2         -1.6724    0.6788   -1.7812 N.pl3     1 <0>         0.0000
     19 O1         -1.4833   -1.2622    0.8410 O.2       1 <0>         0.0000
     20 O2          2.2757    0.5742   -0.4697 O.2       1 <0>         0.0000
     21 Cl1        -4.1286    4.5953   -5.4705 Cl        1 <0>         0.0000
     22 H1          0.2747   -5.5647   -3.1269 H         1 <0>         0.0000
     23 H2          1.4340   -3.4242   -3.6044 H         1 <0>         0.0000
     24 H3         -1.3403   -5.7089   -1.2491 H         1 <0>         0.0000
     25 H4          0.9843   -1.4316   -2.2131 H         1 <0>         0.0000
     26 H5         -1.7981   -3.7240    0.1496 H         1 <0>         0.0000
     27 H6         -3.9869    0.3835   -3.0667 H         1 <0>         0.0000
     28 H7         -0.6584    3.0512   -2.4515 H         1 <0>         0.0000
     29 H8         -5.0107    2.0107   -4.5994 H         1 <0>         0.0000
     30 H9         -1.6781    4.6808   -3.9837 H         1 <0>         0.0000
     31 H10         1.5784   -0.5309    2.1503 H         1 <0>         0.0000
     32 H11         0.3461    0.7531    2.1208 H         1 <0>         0.0000
     33 H12         2.0914    1.1651    2.0776 H         1 <0>         0.0000
     34 H13        -2.1706   -0.1873   -1.6149 H         1 <0>         0.0000
@<TRIPOS>BOND
     1    1    2 ar
     2    1    3 ar
     3    2    4 ar
     4    3    5 ar
     5    4   10 ar
     6    5   10 ar
     7    6    8 ar
     8    6   11 ar
     9    7    9 ar
    10    7   11 ar
    11    8   12 ar
    12    9   12 ar
    13   10   13 1
    14   11   18 1
    15   12   21 1
    16   13   14 1
    17   13   19 2
    18   14   15 1
    19   14   17 2
    20   15   16 1
    21   15   20 2
    22   17   18 1
    23    1   22 1
    24    2   23 1
    25    3   24 1
    26    4   25 1
    27    5   26 1
    28    6   27 1
    29    7   28 1
    30    8   29 1
    31    9   30 1
    32   16   31 1
    33   16   32 1
    34   16   33 1
    35   18   34 1
