@<TRIPOS>MOLECULE
*****
   31    32     0     0     0
SMALL
NO_CHARGES

@<TRIPOS>ATOM
      1 C1          0.3184    3.2146   -3.3974 C.ar      1 <0>         0.0000
      2 C2          1.3425    3.2900   -2.4534 C.ar      1 <0>         0.0000
      3 C3         -0.7734    2.3751   -3.1764 C.ar      1 <0>         0.0000
      4 C4          1.2749    2.5259   -1.2885 C.ar      1 <0>         0.0000
      5 C5         -0.8411    1.6110   -2.0114 C.ar      1 <0>         0.0000
      6 C6          0.1831    1.6863   -1.0674 C.ar      1 <0>         0.0000
      7 C7          1.3660   -1.1062   -0.9463 C.2       1 <0>         0.0000
      8 C8         -1.5725   -0.6199    1.4173 C.2       1 <0>         0.0000
      9 C9          0.1111    0.8721    0.1715 C.3       1 <0>         0.0000
     10 C10         0.6967   -0.5233    0.2242 C.3       1 <0>         0.0000
     11 C11        -0.7986   -0.3394    0.2011 C.3       1 <0>         0.0000
     12 N1          3.4725   -1.2581   -2.0429 N.3       1 <0>         0.0000
     13 N2         -3.1844    0.3188    2.8950 N.3       1 <0>         0.0000
     14 N3          2.7021   -0.7604   -1.0121 N.am      1 <0>         0.0000
     15 N4         -2.3736    0.4439    1.7856 N.am      1 <0>         0.0000
     16 O1          0.7681   -1.8351   -1.7347 O.2       1 <0>         0.0000
     17 O2         -1.5014   -1.7042    1.9913 O.2       1 <0>         0.0000
     18 H1          0.3710    3.8098   -4.3043 H         1 <0>         0.0000
     19 H2          2.1928    3.9438   -2.6252 H         1 <0>         0.0000
     20 H3         -1.5708    2.3164   -3.9117 H         1 <0>         0.0000
     21 H4          2.0781    2.5910   -0.5593 H         1 <0>         0.0000
     22 H5         -1.6959    0.9595   -1.8491 H         1 <0>         0.0000
     23 H6          0.1888    1.4415    1.0948 H         1 <0>         0.0000
     24 H7          1.1439   -0.8145    1.1704 H         1 <0>         0.0000
     25 H8         -1.3149   -0.5983   -0.7184 H         1 <0>         0.0000
     26 H9          4.1602   -0.5414   -2.2709 H         1 <0>         0.0000
     27 H10         2.8643   -1.3331   -2.8572 H         1 <0>         0.0000
     28 H11        -3.2374    1.2397    3.3280 H         1 <0>         0.0000
     29 H12        -2.6888   -0.2755    3.5581 H         1 <0>         0.0000
     30 H13         3.1109   -0.1491   -0.3123 H         1 <0>         0.0000
     31 H14        -2.3658    1.3049    1.2479 H         1 <0>         0.0000
@<TRIPOS>BOND
     1    1    2 ar
     2    1    3 ar
     3    2    4 ar
     4    3    5 ar
     5    4    6 ar
     6    5    6 ar
     7    6    9 1
     8    7   10 1
     9    7   14 am
    10    7   16 2
    11    8   11 1
    12    8   15 am
    13    8   17 2
    14    9   10 1
    15    9   11 1
    16   10   11 1
    17   12   14 1
    18   13   15 1
    19    1   18 1
    20    2   19 1
    21    3   20 1
    22    4   21 1
    23    5   22 1
    24    9   23 1
    25   10   24 1
    26   11   25 1
    27   12   26 1
    28   12   27 1
    29   13   28 1
    30   13   29 1
    31   14   30 1
    32   15   31 1
