@<TRIPOS>MOLECULE
*****
   35    37     0     0     0
SMALL
NO_CHARGES

@<TRIPOS>ATOM
      1 C1          0.6787    0.5262   -5.5251 C.ar      1 <0>         0.0000
      2 C2          2.0612    0.6129   -5.6881 C.ar      1 <0>         0.0000
      3 C3          0.0809   -0.7111   -5.2850 C.ar      1 <0>         0.0000
      4 C4         -0.5625   -1.3617   -9.9559 C.ar      1 <0>         0.0000
      5 C5          2.8461   -0.5377   -5.6111 C.ar      1 <0>         0.0000
      6 C6         -0.1216   -1.4200  -11.2812 C.ar      1 <0>         0.0000
      7 C7          1.0174   -3.5166  -10.8501 C.ar      1 <0>         0.0000
      8 C8          0.8658   -1.8616   -5.2080 C.ar      1 <0>         0.0000
      9 C9         -0.2137   -2.3918   -9.0557 C.ar      1 <0>         0.0000
     10 C10         0.6580   -2.4843  -11.7204 C.ar      1 <0>         0.0000
     11 C11         2.2484   -1.7749   -5.3710 C.ar      1 <0>         0.0000
     12 C12         0.5709   -3.4517   -9.5204 C.ar      1 <0>         0.0000
     13 C13        -0.0769   -3.5600   -7.1893 C.2       1 <0>         0.0000
     14 C14         0.2143   -3.1577   -4.9538 C.2       1 <0>         0.0000
     15 C15         2.9659   -2.5403  -14.4887 C.3       1 <0>         0.0000
     16 C16         2.3200   -3.1743  -13.2752 C.3       1 <0>         0.0000
     17 N1         -0.5768   -2.4681   -7.7190 N.2       1 <0>         0.0000
     18 N2         -0.2301   -3.9574   -5.9010 N.2       1 <0>         0.0000
     19 O1          3.0323   -2.8875   -5.2973 O.3       1 <0>         0.0000
     20 O2          1.0782   -2.5231  -13.0166 O.3       1 <0>         0.0000
     21 S1          0.8458   -4.5586   -8.2273 S.3       1 <0>         0.0000
     22 H1          0.0677    1.4224   -5.5851 H         1 <0>         0.0000
     23 H2          2.5259    1.5764   -5.8755 H         1 <0>         0.0000
     24 H3         -0.9974   -0.7666   -5.1591 H         1 <0>         0.0000
     25 H4         -1.1712   -0.5256   -9.6235 H         1 <0>         0.0000
     26 H5          3.9226   -0.4632   -5.7389 H         1 <0>         0.0000
     27 H6         -0.3949   -0.6226  -11.9677 H         1 <0>         0.0000
     28 H7          1.6264   -4.3472  -11.1949 H         1 <0>         0.0000
     29 H8          0.1007   -3.4573   -3.8946 H         1 <0>         0.0000
     30 H9          2.3270   -2.6446  -15.3700 H         1 <0>         0.0000
     31 H10         3.1555   -1.4763  -14.3134 H         1 <0>         0.0000
     32 H11         3.9347   -3.0061  -14.6976 H         1 <0>         0.0000
     33 H12         2.9640   -3.0666  -12.3973 H         1 <0>         0.0000
     34 H13         2.1305   -4.2372  -13.4523 H         1 <0>         0.0000
     35 H14         3.9631   -2.6502   -5.4312 H         1 <0>         0.0000
@<TRIPOS>BOND
     1    1    2 ar
     2    1    3 ar
     3    2    5 ar
     4    3    8 ar
     5    4    6 ar
     6    4    9 ar
     7    5   11 ar
     8    6   10 ar
     9    7   10 ar
    10    7   12 ar
    11    8   11 ar
    12    8   14 1
    13    9   12 ar
    14    9   17 1
    15   10   20 1
    16   11   19 1
    17   12   21 1
    18   13   17 2
    19   13   18 1
    20   13   21 1
    21   14   18 2
    22   15   16 1
    23   16   20 1
    24    1   22 1
    25    2   23 1
    26    3   24 1
    27    4   25 1
    28    5   26 1
    29    6   27 1
    30    7   28 1
    31   14   29 1
    32   15   30 1
    33   15   31 1
    34   15   32 1
    35   16   33 1
    36   16   34 1
    37   19   35 1
