@<TRIPOS>MOLECULE
*****
   44    47     0     0     0
SMALL
NO_CHARGES

@<TRIPOS>ATOM
      1 C1         -1.1710   -9.4216    0.5999 C.ar      1 <0>         0.0000
      2 C2         -2.0419   -8.4071    0.9974 C.ar      1 <0>         0.0000
      3 C3         -0.1917   -9.1639   -0.3594 C.ar      1 <0>         0.0000
      4 C4         -0.2941   -0.6632   -2.0270 C.ar      1 <0>         0.0000
      5 C5         -0.1748   -0.8519   -0.6509 C.ar      1 <0>         0.0000
      6 C6         -1.9336   -7.1351    0.4355 C.ar      1 <0>         0.0000
      7 C7         -0.0834   -7.8918   -0.9213 C.ar      1 <0>         0.0000
      8 C8         -0.5169   -1.7542   -2.8654 C.ar      1 <0>         0.0000
      9 C9         -2.4798   -9.1749   -6.4546 C.ar      1 <0>         0.0000
     10 C10        -2.9056  -10.5200   -4.4934 C.ar      1 <0>         0.0000
     11 C11        -2.3948   -8.0354   -5.6547 C.ar      1 <0>         0.0000
     12 C12        -2.8206   -9.3805   -3.6934 C.ar      1 <0>         0.0000
     13 C13        -0.2782   -2.1337   -0.1068 C.ar      1 <0>         0.0000
     14 C14        -0.9544   -6.8774   -0.5238 C.ar      1 <0>         0.0000
     15 C15        -0.6212   -3.0354   -2.3159 C.ar      1 <0>         0.0000
     16 C16        -2.7352  -10.4172   -5.8740 C.ar      1 <0>         0.0000
     17 C17        -2.5652   -8.1382   -4.2741 C.ar      1 <0>         0.0000
     18 C18        -0.5024   -3.2410   -0.9319 C.ar      1 <0>         0.0000
     19 C19        -0.8399   -5.5309   -1.1186 C.2       1 <0>         0.0000
     20 C20        -0.8495   -4.2092   -3.1887 C.2       1 <0>         0.0000
     21 C21        -2.8262  -11.6360   -6.7285 C.3       1 <0>         0.0000
     22 C22        -2.4719   -6.9122   -3.4141 C.3       1 <0>         0.0000
     23 N1         -0.5981   -4.5176   -0.3431 N.2       1 <0>         0.0000
     24 N2         -0.9877   -5.3909   -2.4842 N.am      1 <0>         0.0000
     25 O1         -0.8802   -4.0925   -4.4081 O.2       1 <0>         0.0000
     26 O2         -1.0904   -6.5337   -3.2843 O.3       1 <0>         0.0000
     27 H1         -1.2553  -10.4120    1.0374 H         1 <0>         0.0000
     28 H2         -2.8045   -8.6080    1.7442 H         1 <0>         0.0000
     29 H3          0.4867   -9.9537   -0.6687 H         1 <0>         0.0000
     30 H4         -0.2121    0.3354   -2.4464 H         1 <0>         0.0000
     31 H5         -0.0006    0.0001    0.0001 H         1 <0>         0.0000
     32 H6         -2.6175   -6.3519    0.7526 H         1 <0>         0.0000
     33 H7          0.6834   -7.7025   -1.6681 H         1 <0>         0.0000
     34 H8         -0.6057   -1.5887   -3.9353 H         1 <0>         0.0000
     35 H9         -2.3463   -9.0854   -7.5295 H         1 <0>         0.0000
     36 H10        -3.1038  -11.4843   -4.0326 H         1 <0>         0.0000
     37 H11        -2.1940   -7.0719   -6.1155 H         1 <0>         0.0000
     38 H12        -2.9548   -9.4694   -2.6186 H         1 <0>         0.0000
     39 H13        -0.1819   -2.2628    0.9687 H         1 <0>         0.0000
     40 H14        -1.8393  -12.1031   -6.8342 H         1 <0>         0.0000
     41 H15        -3.5159  -12.3738   -6.2983 H         1 <0>         0.0000
     42 H16        -3.2053  -11.3932   -7.7299 H         1 <0>         0.0000
     43 H17        -3.0302   -6.0800   -3.8564 H         1 <0>         0.0000
     44 H18        -2.8868   -7.1043   -2.4187 H         1 <0>         0.0000
@<TRIPOS>BOND
     1    1    2 ar
     2    1    3 ar
     3    2    6 ar
     4    3    7 ar
     5    4    5 ar
     6    4    8 ar
     7    5   13 ar
     8    6   14 ar
     9    7   14 ar
    10    8   15 ar
    11    9   11 ar
    12    9   16 ar
    13   10   12 ar
    14   10   16 ar
    15   11   17 ar
    16   12   17 ar
    17   13   18 ar
    18   14   19 1
    19   15   18 ar
    20   15   20 1
    21   16   21 1
    22   17   22 1
    23   18   23 1
    24   19   23 2
    25   19   24 1
    26   20   24 am
    27   20   25 2
    28   22   26 1
    29   24   26 1
    30    1   27 1
    31    2   28 1
    32    3   29 1
    33    4   30 1
    34    5   31 1
    35    6   32 1
    36    7   33 1
    37    8   34 1
    38    9   35 1
    39   10   36 1
    40   11   37 1
    41   12   38 1
    42   13   39 1
    43   21   40 1
    44   21   41 1
    45   21   42 1
    46   22   43 1
    47   22   44 1
