@<TRIPOS>MOLECULE
*****
   28    30     0     0     0
SMALL
NO_CHARGES

@<TRIPOS>ATOM
      1 C1         -3.3371    2.7285    1.2505 C.ar      1 <0>         0.0000
      2 C2         -4.4083    1.8457    1.3872 C.ar      1 <0>         0.0000
      3 C3         -2.1061    2.2648    0.7862 C.ar      1 <0>         0.0000
      4 C4         -4.2487    0.4993    1.0597 C.ar      1 <0>         0.0000
      5 C5          2.2187   -1.5916    2.8523 C.ar      1 <0>         0.0000
      6 C6          0.4065   -3.1516    2.5069 C.ar      1 <0>         0.0000
      7 C7          2.5215   -3.9304    3.3774 C.ar      1 <0>         0.0000
      8 C8         -1.9465    0.9184    0.4587 C.ar      1 <0>         0.0000
      9 C9          0.9097   -1.8520    2.4470 C.ar      1 <0>         0.0000
     10 C10        -3.0177    0.0356    0.5955 C.ar      1 <0>         0.0000
     11 C11         3.0246   -2.6308    3.3174 C.ar      1 <0>         0.0000
     12 C12         1.2124   -4.1908    2.9721 C.ar      1 <0>         0.0000
     13 C13        -0.6210    0.4722   -0.0301 C.2       1 <0>         0.0000
     14 C14         0.1398   -0.5757    0.7166 C.2       1 <0>         0.0000
     15 N1         -0.1169    0.9910   -1.1109 N.2       1 <0>         0.0000
     16 N2          0.0948   -0.8026    1.9775 N.2       1 <0>         0.0000
     17 S1          1.0839   -1.3545   -0.4772 S.3       1 <0>         0.0000
     18 S2          1.3658    0.3513   -1.5347 S.3       1 <0>         0.0000
     19 Cl1        -2.8622   -1.6386    0.2011 Cl        1 <0>         0.0000
     20 Cl2         4.6400   -2.3092    3.8166 Cl        1 <0>         0.0000
     21 Cl3         0.5914   -5.7943    3.0456 Cl        1 <0>         0.0000
     22 H1         -3.4615    3.7768    1.5056 H         1 <0>         0.0000
     23 H2         -5.3667    2.2069    1.7487 H         1 <0>         0.0000
     24 H3         -1.2793    2.9633    0.6842 H         1 <0>         0.0000
     25 H4         -5.0936   -0.1755    1.1721 H         1 <0>         0.0000
     26 H5          2.6062   -0.5762    2.8037 H         1 <0>         0.0000
     27 H6         -0.6150   -3.3502    2.1902 H         1 <0>         0.0000
     28 H7          3.1502   -4.7408    3.7400 H         1 <0>         0.0000
@<TRIPOS>BOND
     1    1    2 ar
     2    1    3 ar
     3    2    4 ar
     4    3    8 ar
     5    4   10 ar
     6    5    9 ar
     7    5   11 ar
     8    6    9 ar
     9    6   12 ar
    10    7   11 ar
    11    7   12 ar
    12    8   10 ar
    13    8   13 1
    14    9   16 1
    15   10   19 1
    16   11   20 1
    17   12   21 1
    18   13   14 1
    19   13   15 2
    20   14   16 2
    21   14   17 1
    22   15   18 1
    23   17   18 1
    24    1   22 1
    25    2   23 1
    26    3   24 1
    27    4   25 1
    28    5   26 1
    29    6   27 1
    30    7   28 1
