@<TRIPOS>MOLECULE
*****
   37    39     0     0     0
SMALL
NO_CHARGES

@<TRIPOS>ATOM
      1 C1          2.1592   -8.3520    2.6727 C.ar      1 <0>         0.0000
      2 C2          1.4729   -9.1508    1.7581 C.ar      1 <0>         0.0000
      3 C3          1.4620   -7.4334    3.4573 C.ar      1 <0>         0.0000
      4 C4          0.0893   -9.0309    1.6281 C.ar      1 <0>         0.0000
      5 C5          0.0784   -7.3135    3.3273 C.ar      1 <0>         0.0000
      6 C6         -0.6080   -8.1123    2.4127 C.ar      1 <0>         0.0000
      7 C7         -0.0121   -4.1973    4.4652 C.2       1 <0>         0.0000
      8 C8          1.4894   -2.5615    3.5500 C.2       1 <0>         0.0000
      9 C9          2.8922    0.5269    2.1303 C.3       1 <0>         0.0000
     10 C10         1.9403    1.0954    3.1752 C.3       1 <0>         0.0000
     11 C11         3.0814   -0.9099    2.5918 C.3       1 <0>         0.0000
     12 C12         1.0006   -0.0700    3.4508 C.3       1 <0>         0.0000
     13 C13        -0.6476   -6.3299    4.1706 C.3       1 <0>         0.0000
     14 C14         0.1466   -2.7484    4.2095 C.3       1 <0>         0.0000
     15 N1          0.4059   -4.7764    5.5603 N.2       1 <0>         0.0000
     16 N2         -0.6240   -5.0252    3.5819 N.pl3     1 <0>         0.0000
     17 N3          1.8187   -1.2578    3.2267 N.am      1 <0>         0.0000
     18 O1          2.2194   -3.5304    3.3350 O.2       1 <0>         0.0000
     19 O2          0.0583   -6.1702    5.4257 O.3       1 <0>         0.0000
     20 O3         -1.9592   -8.0071    2.2727 O.3       1 <0>         0.0000
     21 H1          3.2368   -8.4446    2.7739 H         1 <0>         0.0000
     22 H2          2.0163   -9.8652    1.1468 H         1 <0>         0.0000
     23 H3          2.0062   -6.8146    4.1659 H         1 <0>         0.0000
     24 H4         -0.4399   -9.6559    0.9138 H         1 <0>         0.0000
     25 H5          2.4234    0.5493    1.1395 H         1 <0>         0.0000
     26 H6          3.8349    1.0789    2.0818 H         1 <0>         0.0000
     27 H7          2.4925    1.3609    4.0844 H         1 <0>         0.0000
     28 H8          1.4118    1.9834    2.8174 H         1 <0>         0.0000
     29 H9          3.3100   -1.5987    1.7731 H         1 <0>         0.0000
     30 H10         3.8681   -0.9892    3.3503 H         1 <0>         0.0000
     31 H11         0.5966   -0.0542    4.4666 H         1 <0>         0.0000
     32 H12         0.1721   -0.0940    2.7347 H         1 <0>         0.0000
     33 H13        -1.6671   -6.6656    4.3783 H         1 <0>         0.0000
     34 H14         0.1352   -2.1803    5.1361 H         1 <0>         0.0000
     35 H15        -0.6162   -2.3813    3.5267 H         1 <0>         0.0000
     36 H16        -1.0449   -4.7752    2.6960 H         1 <0>         0.0000
     37 H17        -2.2755   -8.6292    1.5990 H         1 <0>         0.0000
@<TRIPOS>BOND
     1    1    2 ar
     2    1    3 ar
     3    2    4 ar
     4    3    5 ar
     5    4    6 ar
     6    5    6 ar
     7    5   13 1
     8    6   20 1
     9    7   14 1
    10    7   15 2
    11    7   16 1
    12    8   14 1
    13    8   17 am
    14    8   18 2
    15    9   10 1
    16    9   11 1
    17   10   12 1
    18   11   17 1
    19   12   17 1
    20   13   16 1
    21   13   19 1
    22   15   19 1
    23    1   21 1
    24    2   22 1
    25    3   23 1
    26    4   24 1
    27    9   25 1
    28    9   26 1
    29   10   27 1
    30   10   28 1
    31   11   29 1
    32   11   30 1
    33   12   31 1
    34   12   32 1
    35   13   33 1
    36   14   34 1
    37   14   35 1
    38   16   36 1
    39   20   37 1
