@<TRIPOS>MOLECULE
*****
   21    21     0     0     0
SMALL
NO_CHARGES

@<TRIPOS>ATOM
      1 C1          0.2322   -2.0615    2.4221 C.2       1 <0>         0.0000
      2 C2         -0.0428   -2.9643    3.4191 C.2       1 <0>         0.0000
      3 C3          1.5480   -1.7584    4.0814 C.2       1 <0>         0.0000
      4 C4         -0.3546   -1.8181    1.0761 C.2       1 <0>         0.0000
      5 C5         -1.0608   -4.0243    3.4558 C.3       1 <0>         0.0000
      6 C6          2.6444   -1.0891    4.7974 C.3       1 <0>         0.0000
      7 C7          0.2264   -0.6998    0.2328 C.3       1 <0>         0.0000
      8 N1          0.8038   -2.7653    4.4796 N.2       1 <0>         0.0000
      9 N2         -1.3442   -2.5649    0.6853 N.2       1 <0>         0.0000
     10 O1          1.2622   -1.2749    2.8415 O.3       1 <0>         0.0000
     11 O2         -1.7961   -2.1918   -0.5819 O.3       1 <0>         0.0000
     12 H1         -0.6678   -4.9749    3.0537 H         1 <0>         0.0000
     13 H2         -1.4221   -4.2239    4.4815 H         1 <0>         0.0000
     14 H3         -1.9597   -3.7633    2.8671 H         1 <0>         0.0000
     15 H4          3.6167   -1.5657    4.5810 H         1 <0>         0.0000
     16 H5          2.7321   -0.0212    4.5258 H         1 <0>         0.0000
     17 H6          2.5030   -1.1092    5.8937 H         1 <0>         0.0000
     18 H7          1.0417   -1.0841   -0.3876 H         1 <0>         0.0000
     19 H8         -0.5562   -0.2907   -0.4124 H         1 <0>         0.0000
     20 H9          0.6434    0.1019    0.8472 H         1 <0>         0.0000
     21 H10        -2.5171   -2.8274   -0.7272 H         1 <0>         0.0000
@<TRIPOS>BOND
     1    1    2 2
     2    1    4 1
     3    1   10 1
     4    2    5 1
     5    2    8 1
     6    3    6 1
     7    3    8 2
     8    3   10 1
     9    4    7 1
    10    4    9 2
    11    9   11 1
    12    5   12 1
    13    5   13 1
    14    5   14 1
    15    6   15 1
    16    6   16 1
    17    6   17 1
    18    7   18 1
    19    7   19 1
    20    7   20 1
    21   11   21 1
