@<TRIPOS>MOLECULE
*****
   30    31     0     0     0
SMALL
NO_CHARGES

@<TRIPOS>ATOM
      1 C1          1.8478   -1.0780   -0.1138 C.ar      1 <0>         0.0000
      2 C2          3.4225   -1.5490   11.1038 C.ar      1 <0>         0.0000
      3 C3          0.6661   -0.7686    0.5596 C.ar      1 <0>         0.0000
      4 C4          2.9990   -1.3950    0.6072 C.ar      1 <0>         0.0000
      5 C5          4.5551   -1.0369   10.4710 C.ar      1 <0>         0.0000
      6 C6          2.3118   -1.9255   10.3486 C.ar      1 <0>         0.0000
      7 C7          0.6357   -0.7760    1.9541 C.ar      1 <0>         0.0000
      8 C8          2.9686   -1.4024    2.0017 C.ar      1 <0>         0.0000
      9 C9          4.5771   -0.9011    9.0829 C.ar      1 <0>         0.0000
     10 C10         2.3338   -1.7898    8.9605 C.ar      1 <0>         0.0000
     11 C11         1.7869   -1.0929    2.6752 C.ar      1 <0>         0.0000
     12 C12         3.4664   -1.2776    8.3277 C.ar      1 <0>         0.0000
     13 C13         1.7551   -1.1006    4.1291 C.2       1 <0>         0.0000
     14 C14         3.4898   -1.1329    6.8488 C.2       1 <0>         0.0000
     15 N1          2.6662   -1.9375    4.7754 N.am      1 <0>         0.0000
     16 N2          2.6788   -2.0054    6.1489 N.am      1 <0>         0.0000
     17 O1          0.9363   -0.3981    4.7492 O.2       1 <0>         0.0000
     18 O2          4.2160   -0.2837    6.3381 O.2       1 <0>         0.0000
     19 H1          1.8715   -1.0722   -1.1996 H         1 <0>         0.0000
     20 H2          3.4055   -1.6547   12.1846 H         1 <0>         0.0000
     21 H3         -0.2301   -0.5217   -0.0020 H         1 <0>         0.0000
     22 H4          3.9190   -1.6362    0.0829 H         1 <0>         0.0000
     23 H5          5.4197   -0.7436   11.0592 H         1 <0>         0.0000
     24 H6          1.4301   -2.3246   10.8413 H         1 <0>         0.0000
     25 H7         -0.2905   -0.5334    2.4687 H         1 <0>         0.0000
     26 H8          3.8717   -1.6507    2.5533 H         1 <0>         0.0000
     27 H9          5.4649   -0.5009    8.6000 H         1 <0>         0.0000
     28 H10         1.4625   -2.0863    8.3821 H         1 <0>         0.0000
     29 H11         3.3149   -2.5481    4.2910 H         1 <0>         0.0000
     30 H12         2.1096   -2.7335    6.5664 H         1 <0>         0.0000
@<TRIPOS>BOND
     1    1    3 ar
     2    1    4 ar
     3    2    5 ar
     4    2    6 ar
     5    3    7 ar
     6    4    8 ar
     7    5    9 ar
     8    6   10 ar
     9    7   11 ar
    10    8   11 ar
    11    9   12 ar
    12   10   12 ar
    13   11   13 1
    14   12   14 1
    15   13   15 am
    16   13   17 2
    17   14   16 am
    18   14   18 2
    19   15   16 1
    20    1   19 1
    21    2   20 1
    22    3   21 1
    23    4   22 1
    24    5   23 1
    25    6   24 1
    26    7   25 1
    27    8   26 1
    28    9   27 1
    29   10   28 1
    30   15   29 1
    31   16   30 1
