@<TRIPOS>MOLECULE
*****
   28    27     0     0     0
SMALL
NO_CHARGES

@<TRIPOS>ATOM
      1 C1         -1.6237    0.1295   -0.3869 C.2       1 <0>         0.0000
      2 C2          1.4956   -0.3149    0.2178 C.2       1 <0>         0.0000
      3 C3         -2.7661    1.7921    1.0954 C.3       1 <0>         0.0000
      4 C4         -4.0505    0.6919   -0.7581 C.3       1 <0>         0.0000
      5 C5          3.9875   -0.5680    0.4820 C.3       1 <0>         0.0000
      6 C6          2.9640   -0.4472   -1.8057 C.3       1 <0>         0.0000
      7 C7         -2.9433    0.5139    0.2780 C.3       1 <0>         0.0000
      8 C8          2.7689   -0.9219   -0.3670 C.3       1 <0>         0.0000
      9 N1         -0.8421   -0.6732    0.4250 N.am      1 <0>         0.0000
     10 N2          0.3802   -1.0940   -0.0335 N.am      1 <0>         0.0000
     11 O1         -1.3093    0.5084   -1.5134 O.2       1 <0>         0.0000
     12 O2          1.4856    0.7497    0.8327 O.2       1 <0>         0.0000
     13 H1         -2.4763    2.6351    0.4593 H         1 <0>         0.0000
     14 H2         -1.9881    1.6650    1.8554 H         1 <0>         0.0000
     15 H3         -3.6974    2.0694    1.6017 H         1 <0>         0.0000
     16 H4         -3.8050    1.4998   -1.4553 H         1 <0>         0.0000
     17 H5         -4.2063   -0.2232   -1.3403 H         1 <0>         0.0000
     18 H6         -5.0004    0.9419   -0.2729 H         1 <0>         0.0000
     19 H7          4.1419    0.5157    0.5091 H         1 <0>         0.0000
     20 H8          4.8934   -1.0277    0.0721 H         1 <0>         0.0000
     21 H9          3.8746   -0.9207    1.5132 H         1 <0>         0.0000
     22 H10         3.0819    0.6414   -1.8502 H         1 <0>         0.0000
     23 H11         3.8529   -0.9064   -2.2510 H         1 <0>         0.0000
     24 H12         2.1046   -0.7090   -2.4319 H         1 <0>         0.0000
     25 H13        -3.2325   -0.3028    0.9516 H         1 <0>         0.0000
     26 H14         2.6550   -2.0133   -0.3643 H         1 <0>         0.0000
     27 H15        -1.1684   -0.9465    1.3459 H         1 <0>         0.0000
     28 H16         0.4651   -1.9635   -0.5493 H         1 <0>         0.0000
@<TRIPOS>BOND
     1    1    7 1
     2    1    9 am
     3    1   11 2
     4    2    8 1
     5    2   10 am
     6    2   12 2
     7    3    7 1
     8    4    7 1
     9    5    8 1
    10    6    8 1
    11    9   10 1
    12    3   13 1
    13    3   14 1
    14    3   15 1
    15    4   16 1
    16    4   17 1
    17    4   18 1
    18    5   19 1
    19    5   20 1
    20    5   21 1
    21    6   22 1
    22    6   23 1
    23    6   24 1
    24    7   25 1
    25    8   26 1
    26    9   27 1
    27   10   28 1
