@<TRIPOS>MOLECULE
*****
   16    16     0     0     0
SMALL
NO_CHARGES

@<TRIPOS>ATOM
      1 C1          0.0707   -2.7221   -1.7863 C.2       1 <0>         0.0000
      2 C2         -0.2303   -1.3824   -1.7538 C.2       1 <0>         0.0000
      3 C3          0.0890   -0.9817   -0.4426 C.2       1 <0>         0.0000
      4 C4         -0.0324    0.3271    0.1382 C.2       1 <0>         0.0000
      5 C5          0.9781   -4.3270   -0.0892 C.3       1 <0>         0.0000
      6 N1          0.5568   -1.9856    0.3039 N.2       1 <0>         0.0000
      7 N2          0.2926    0.6031    1.3789 N.2       1 <0>         0.0000
      8 N3          0.5336   -3.0305   -0.5409 N.pl3     1 <0>         0.0000
      9 O1          0.0606    1.9555    1.6427 O.3       1 <0>         0.0000
     10 Cl1        -0.8454   -0.4204   -3.0017 Cl        1 <0>         0.0000
     11 H1         -0.0028   -3.4649   -2.5692 H         1 <0>         0.0000
     12 H2         -0.4270    1.1614   -0.5002 H         1 <0>         0.0000
     13 H3          2.0504   -4.4040   -0.2876 H         1 <0>         0.0000
     14 H4          0.7793   -4.4275    0.9814 H         1 <0>         0.0000
     15 H5          0.4314   -5.1049   -0.6295 H         1 <0>         0.0000
     16 H6          0.3366    2.0232    2.5726 H         1 <0>         0.0000
@<TRIPOS>BOND
     1    1    2 2
     2    1    8 1
     3    2    3 1
     4    2   10 1
     5    3    4 1
     6    3    6 2
     7    4    7 2
     8    5    8 1
     9    6    8 1
    10    7    9 1
    11    1   11 1
    12    4   12 1
    13    5   13 1
    14    5   14 1
    15    5   15 1
    16    9   16 1
