@<TRIPOS>MOLECULE
*****
   26    26     0     0     0
SMALL
NO_CHARGES

@<TRIPOS>ATOM
      1 C1          0.5047    2.0369   -5.0969 C.ar      1 <0>         0.0000
      2 C2          0.1745    0.8898   -5.8184 C.ar      1 <0>         0.0000
      3 C3          0.1191    2.1562   -3.7617 C.ar      1 <0>         0.0000
      4 C4         -0.5415   -0.1381   -5.2047 C.ar      1 <0>         0.0000
      5 C5         -0.5969    1.1284   -3.1480 C.ar      1 <0>         0.0000
      6 C6         -0.9272   -0.0188   -3.8695 C.ar      1 <0>         0.0000
      7 C7         -0.1869    0.1274    0.6098 C.2       1 <0>         0.0000
      8 C8          2.1945   -2.4699    1.6207 C.3       1 <0>         0.0000
      9 C9          1.4726   -1.5768    0.6343 C.3       1 <0>         0.0000
     10 N1         -0.1151    0.2535   -0.6745 N.2       1 <0>         0.0000
     11 O1         -0.6569    2.6768   -1.0669 O.2       1 <0>         0.0000
     12 O2         -2.4522    0.9368   -1.3833 O.2       1 <0>         0.0000
     13 O3         -1.0087    0.8451    1.4121 O.3       1 <0>         0.0000
     14 O4          0.5505   -0.7428    1.3478 O.3       1 <0>         0.0000
     15 S1         -1.0578    1.3348   -1.4502 S.o2      1 <0>         0.0000
     16 Cl1        -1.8120   -1.3197   -3.1574 Cl        1 <0>         0.0000
     17 H1          1.0629    2.8368   -5.5745 H         1 <0>         0.0000
     18 H2          0.4753    0.7967   -6.8577 H         1 <0>         0.0000
     19 H3          0.3835    3.0553   -3.2113 H         1 <0>         0.0000
     20 H4         -0.7903   -1.0252   -5.7817 H         1 <0>         0.0000
     21 H5          2.7532   -1.8754    2.3489 H         1 <0>         0.0000
     22 H6          1.4835   -3.1078    2.1559 H         1 <0>         0.0000
     23 H7          2.8905   -3.1361    1.1002 H         1 <0>         0.0000
     24 H8          0.9159   -2.1775   -0.0911 H         1 <0>         0.0000
     25 H9          2.1843   -0.9396    0.1010 H         1 <0>         0.0000
     26 H10        -0.9044    0.5930    2.3460 H         1 <0>         0.0000
@<TRIPOS>BOND
     1    1    2 ar
     2    1    3 ar
     3    2    4 ar
     4    3    5 ar
     5    4    6 ar
     6    5    6 ar
     7    5   15 1
     8    6   16 1
     9    7   10 2
    10    7   13 1
    11    7   14 1
    12    8    9 1
    13    9   14 1
    14   10   15 1
    15   11   15 2
    16   12   15 2
    17    1   17 1
    18    2   18 1
    19    3   19 1
    20    4   20 1
    21    8   21 1
    22    8   22 1
    23    8   23 1
    24    9   24 1
    25    9   25 1
    26   13   26 1
