@<TRIPOS>MOLECULE
*****
   23    24     0     0     0
SMALL
NO_CHARGES

@<TRIPOS>ATOM
      1 C1         -0.8548    1.2445   -1.5477 C.ar      1 <0>         0.0000
      2 C2         -0.7964    0.0935   -0.7339 C.ar      1 <0>         0.0000
      3 C3         -1.8622    1.4007   -2.5043 C.ar      1 <0>         0.0000
      4 C4         -1.7442   -0.9266   -0.8590 C.ar      1 <0>         0.0000
      5 C5         -2.7889    0.3850   -2.6096 C.ar      1 <0>         0.0000
      6 C6         -2.7312   -0.7518   -1.8060 C.ar      1 <0>         0.0000
      7 C7         -3.9406    0.2481   -3.5069 C.2       1 <0>         0.0000
      8 C8         -3.8452   -1.6289   -2.1804 C.2       1 <0>         0.0000
      9 C9         -8.0816   -1.4499   -3.6169 C.3       1 <0>         0.0000
     10 C10        -6.8190   -0.9260   -2.9665 C.3       1 <0>         0.0000
     11 N1         -4.5070   -0.9334   -3.1433 N.am      1 <0>         0.0000
     12 O1         -4.2665    1.0590   -4.3513 O.2       1 <0>         0.0000
     13 O2         -4.0742   -2.7145   -1.6846 O.2       1 <0>         0.0000
     14 O3         -5.6754   -1.3956   -3.7133 O.3       1 <0>         0.0000
     15 H1         -0.1027    2.0201   -1.4279 H         1 <0>         0.0000
     16 H2         -0.0002    0.0002    0.0002 H         1 <0>         0.0000
     17 H3         -1.9046    2.2840   -3.1305 H         1 <0>         0.0000
     18 H4         -1.6967   -1.8113   -0.2354 H         1 <0>         0.0000
     19 H5         -8.1669   -1.0929   -4.6470 H         1 <0>         0.0000
     20 H6         -8.0882   -2.5448   -3.6206 H         1 <0>         0.0000
     21 H7         -8.9661   -1.1282   -3.0572 H         1 <0>         0.0000
     22 H8         -6.7398   -1.2867   -1.9366 H         1 <0>         0.0000
     23 H9         -6.8136    0.1680   -2.9645 H         1 <0>         0.0000
@<TRIPOS>BOND
     1    1    2 ar
     2    1    3 ar
     3    2    4 ar
     4    3    5 ar
     5    4    6 ar
     6    5    6 ar
     7    5    7 1
     8    6    8 1
     9    7   11 am
    10    7   12 2
    11    8   11 am
    12    8   13 2
    13    9   10 1
    14   10   14 1
    15   11   14 1
    16    1   15 1
    17    2   16 1
    18    3   17 1
    19    4   18 1
    20    9   19 1
    21    9   20 1
    22    9   21 1
    23   10   22 1
    24   10   23 1
