@<TRIPOS>MOLECULE
*****
   18    19     0     0     0
SMALL
NO_CHARGES

@<TRIPOS>ATOM
      1 C1          0.4803   -0.3133   -1.2716 C.ar      1 <0>         0.0000
      2 C2         -0.9959    0.9648    0.1512 C.ar      1 <0>         0.0000
      3 C3         -0.0354    0.3381   -2.3919 C.ar      1 <0>         0.0000
      4 C4         -1.5117    1.6163   -0.9692 C.ar      1 <0>         0.0000
      5 C5          0.0000    0.0000    0.0000 C.ar      1 <0>         0.0000
      6 C6         -1.0314    1.3029   -2.2408 C.ar      1 <0>         0.0000
      7 C7          1.5988   -0.2162    1.8552 C.2       1 <0>         0.0000
      8 C8          0.5426   -0.6843    1.1786 C.2       1 <0>         0.0000
      9 C9          2.0293   -1.0108    3.0268 C.2       1 <0>         0.0000
     10 S1          3.3163   -0.6311    4.0248 S.2       1 <0>         0.0000
     11 S2         -0.2361   -2.1357    1.6950 S.3       1 <0>         0.0000
     12 S3          1.0267   -2.4348    3.2709 S.3       1 <0>         0.0000
     13 Cl1        -1.6672    2.1064   -3.6231 Cl        1 <0>         0.0000
     14 H1          1.2561   -1.0637   -1.4047 H         1 <0>         0.0000
     15 H2         -1.3799    1.2195    1.1361 H         1 <0>         0.0000
     16 H3          0.3490    0.0839   -3.3765 H         1 <0>         0.0000
     17 H4         -2.2876    2.3659   -0.8363 H         1 <0>         0.0000
     18 H5          2.1286    0.6901    1.5816 H         1 <0>         0.0000
@<TRIPOS>BOND
     1    1    3 ar
     2    1    5 ar
     3    2    4 ar
     4    2    5 ar
     5    3    6 ar
     6    4    6 ar
     7    5    8 1
     8    6   13 1
     9    7    8 2
    10    7    9 1
    11    8   11 1
    12    9   10 2
    13    9   12 1
    14   11   12 1
    15    1   14 1
    16    2   15 1
    17    3   16 1
    18    4   17 1
    19    7   18 1
