@<TRIPOS>MOLECULE
*****
   52    55     0     0     0
SMALL
NO_CHARGES

@<TRIPOS>ATOM
      1 C1          0.3607   -1.9458    5.4019 C.ar      1 <0>         0.0000
      2 C2          0.4262   -0.5758    5.6505 C.ar      1 <0>         0.0000
      3 C3          0.5998   -2.4379    4.1199 C.ar      1 <0>         0.0000
      4 C4          0.8033    1.7036    4.8475 C.ar      1 <0>         0.0000
      5 C5          1.1094    2.5855    3.8092 C.ar      1 <0>         0.0000
      6 C6          1.1522   -2.0396    1.7707 C.ar      1 <0>         0.0000
      7 C7          1.4584   -1.1576    0.7324 C.ar      1 <0>         0.0000
      8 C8          1.6619    2.9839    1.4599 C.ar      1 <0>         0.0000
      9 C9          1.9010    2.4918    0.1780 C.ar      1 <0>         0.0000
     10 C10         0.7326    0.3229    4.6183 C.ar      1 <0>         0.0000
     11 C11         0.9085   -1.5650    3.0665 C.ar      1 <0>         0.0000
     12 C12         1.3533    2.1110    2.5134 C.ar      1 <0>         0.0000
     13 C13         1.5292    0.2231    0.9616 C.ar      1 <0>         0.0000
     14 C14         0.9756   -0.1746    3.3168 C.ar      1 <0>         0.0000
     15 C15         1.2863    0.7205    2.2631 C.ar      1 <0>         0.0000
     16 C16         1.8355    1.1218   -0.0706 C.ar      1 <0>         0.0000
     17 C17         1.3590   -2.6460   -3.6776 C.2       1 <0>         0.0000
     18 C18         1.8523   -5.5818   -2.4667 C.2       1 <0>         0.0000
     19 C19         0.9146   -9.0773   -1.8868 C.3       1 <0>         0.0000
     20 C20         2.1039    0.6637   -1.4706 C.3       1 <0>         0.0000
     21 C21         0.8378    0.3408   -2.2834 C.3       1 <0>         0.0000
     22 C22         1.1109   -0.1658   -3.6983 C.3       1 <0>         0.0000
     23 C23         1.3136   -7.6729   -1.4869 C.3       1 <0>         0.0000
     24 N1          1.9065   -1.3622   -3.7136 N.am      1 <0>         0.0000
     25 N2          2.3475   -3.6213   -3.7052 N.am      1 <0>         0.0000
     26 N3          1.9854   -4.9430   -3.6783 N.am      1 <0>         0.0000
     27 O1          0.1517   -2.8798   -3.6298 O.2       1 <0>         0.0000
     28 O2          2.0311   -5.0710   -1.3653 O.2       1 <0>         0.0000
     29 O3          1.4884   -6.8832   -2.6687 O.3       1 <0>         0.0000
     30 H1          0.1229   -2.6318    6.2098 H         1 <0>         0.0000
     31 H2          0.2354   -0.2164    6.6594 H         1 <0>         0.0000
     32 H3          0.5431   -3.5113    3.9513 H         1 <0>         0.0000
     33 H4          0.6204    2.1095    5.8405 H         1 <0>         0.0000
     34 H5          1.1550    3.6510    4.0258 H         1 <0>         0.0000
     35 H6          1.1062   -3.1051    1.5548 H         1 <0>         0.0000
     36 H7          1.6383   -1.5794   -0.2538 H         1 <0>         0.0000
     37 H8          1.7189    4.0571    1.6291 H         1 <0>         0.0000
     38 H9          2.1383    3.1881   -0.6225 H         1 <0>         0.0000
     39 H10        -0.0258   -9.0718   -2.4451 H         1 <0>         0.0000
     40 H11         1.6910   -9.5375   -2.5067 H         1 <0>         0.0000
     41 H12         0.7963   -9.7115   -1.0020 H         1 <0>         0.0000
     42 H13         2.7760   -0.2078   -1.4720 H         1 <0>         0.0000
     43 H14         2.6626    1.4530   -1.9974 H         1 <0>         0.0000
     44 H15         0.2227    1.2478   -2.3430 H         1 <0>         0.0000
     45 H16         0.2398   -0.4094   -1.7518 H         1 <0>         0.0000
     46 H17         1.6649    0.5910   -4.2627 H         1 <0>         0.0000
     47 H18         0.1827   -0.3727   -4.2391 H         1 <0>         0.0000
     48 H19         2.2547   -7.6855   -0.9291 H         1 <0>         0.0000
     49 H20         0.5364   -7.2143   -0.8683 H         1 <0>         0.0000
     50 H21         2.9203   -1.2690   -3.7525 H         1 <0>         0.0000
     51 H22         3.3261   -3.3585   -3.7447 H         1 <0>         0.0000
     52 H23         1.8172   -5.4453   -4.5430 H         1 <0>         0.0000
@<TRIPOS>BOND
     1    1    2 ar
     2    1    3 ar
     3    2   10 ar
     4    3   11 ar
     5    4    5 ar
     6    4   10 ar
     7    5   12 ar
     8    6    7 ar
     9    6   11 ar
    10    7   13 ar
    11    8    9 ar
    12    8   12 ar
    13    9   16 ar
    14   10   14 ar
    15   11   14 ar
    16   12   15 ar
    17   13   15 ar
    18   13   16 ar
    19   14   15 ar
    20   16   20 1
    21   17   24 am
    22   17   25 am
    23   17   27 2
    24   18   26 am
    25   18   28 2
    26   18   29 1
    27   19   23 1
    28   20   21 1
    29   21   22 1
    30   22   24 1
    31   23   29 1
    32   25   26 1
    33    1   30 1
    34    2   31 1
    35    3   32 1
    36    4   33 1
    37    5   34 1
    38    6   35 1
    39    7   36 1
    40    8   37 1
    41    9   38 1
    42   19   39 1
    43   19   40 1
    44   19   41 1
    45   20   42 1
    46   20   43 1
    47   21   44 1
    48   21   45 1
    49   22   46 1
    50   22   47 1
    51   23   48 1
    52   23   49 1
    53   24   50 1
    54   25   51 1
    55   26   52 1
