@<TRIPOS>MOLECULE
*****
   33    35     0     0     0
SMALL
NO_CHARGES

@<TRIPOS>ATOM
      1 C1         -1.4704   -0.5510   -1.4820 C.ar      1 <0>         0.0000
      2 C2         -0.5377   -0.8214   -0.4663 C.ar      1 <0>         0.0000
      3 C3         -2.1726   -1.5883   -2.0958 C.ar      1 <0>         0.0000
      4 C4         -0.2938   -2.1344   -0.0495 C.ar      1 <0>         0.0000
      5 C5         -4.2678   -0.7770   -6.1664 C.ar      1 <0>         0.0000
      6 C6         -6.0152   -0.5764   -4.5100 C.ar      1 <0>         0.0000
      7 C7         -4.4579    0.5565   -6.5285 C.ar      1 <0>         0.0000
      8 C8         -6.2052    0.7572   -4.8721 C.ar      1 <0>         0.0000
      9 C9         -1.9104   -2.8749   -1.6630 C.ar      1 <0>         0.0000
     10 C10        -0.9917   -3.1639   -0.6598 C.ar      1 <0>         0.0000
     11 C11        -5.0465   -1.3435   -5.1572 C.ar      1 <0>         0.0000
     12 C12        -5.4266    1.3236   -5.8814 C.ar      1 <0>         0.0000
     13 C13        -2.4803   -4.1272   -2.1126 C.2       1 <0>         0.0000
     14 C14        -0.8856   -4.6284   -0.3710 C.3       1 <0>         0.0000
     15 C15        -1.8837   -5.2769   -1.3449 C.3       1 <0>         0.0000
     16 N1         -3.3698   -4.2452   -3.0367 N.2       1 <0>         0.0000
     17 O1         -4.2357   -3.6823   -5.8622 O.2       1 <0>         0.0000
     18 O2         -6.0481   -3.4897   -4.1059 O.2       1 <0>         0.0000
     19 O3         -3.6790   -2.9679   -3.5176 O.3       1 <0>         0.0000
     20 S1         -4.8059   -3.0310   -4.6989 S.o2      1 <0>         0.0000
     21 Cl1        -5.6611    2.9689   -6.3281 Cl        1 <0>         0.0000
     22 H1         -1.6446    0.4762   -1.7909 H         1 <0>         0.0000
     23 H2         -0.0002   -0.0001    0.0003 H         1 <0>         0.0000
     24 H3         -2.8921   -1.3825   -2.8799 H         1 <0>         0.0000
     25 H4          0.4278   -2.3347    0.7355 H         1 <0>         0.0000
     26 H5         -3.5103   -1.3657   -6.6770 H         1 <0>         0.0000
     27 H6         -6.6272   -1.0077   -3.7224 H         1 <0>         0.0000
     28 H7         -3.8439    0.9846   -7.3167 H         1 <0>         0.0000
     29 H8         -6.9638    1.3430   -4.3592 H         1 <0>         0.0000
     30 H9          0.1301   -4.9922   -0.5565 H         1 <0>         0.0000
     31 H10        -1.1609   -4.8435    0.6666 H         1 <0>         0.0000
     32 H11        -2.6707   -5.8181   -0.8102 H         1 <0>         0.0000
     33 H12        -1.3828   -5.9663   -2.0319 H         1 <0>         0.0000
@<TRIPOS>BOND
     1    1    2 ar
     2    1    3 ar
     3    2    4 ar
     4    3    9 ar
     5    4   10 ar
     6    5    7 ar
     7    5   11 ar
     8    6    8 ar
     9    6   11 ar
    10    7   12 ar
    11    8   12 ar
    12    9   10 ar
    13    9   13 1
    14   10   14 1
    15   11   20 1
    16   12   21 1
    17   13   15 1
    18   13   16 2
    19   14   15 1
    20   16   19 1
    21   17   20 2
    22   18   20 2
    23   19   20 1
    24    1   22 1
    25    2   23 1
    26    3   24 1
    27    4   25 1
    28    5   26 1
    29    6   27 1
    30    7   28 1
    31    8   29 1
    32   14   30 1
    33   14   31 1
    34   15   32 1
    35   15   33 1
