@<TRIPOS>MOLECULE
*****
   32    34     0     0     0
SMALL
NO_CHARGES

@<TRIPOS>ATOM
      1 C1          1.8862   -1.0355   -0.1124 C.ar      1 <0>         0.0000
      2 C2          6.1473   -3.4890    3.0506 C.ar      1 <0>         0.0000
      3 C3          2.4476    0.0111    0.6190 C.ar      1 <0>         0.0000
      4 C4          1.2814   -2.1037    0.5502 C.ar      1 <0>         0.0000
      5 C5          5.0088   -4.2496    3.3168 C.ar      1 <0>         0.0000
      6 C6          6.1756   -2.1351    3.3850 C.ar      1 <0>         0.0000
      7 C7          0.5811   -0.5188    6.1516 C.ar      1 <0>         0.0000
      8 C8          1.5974   -1.1036    6.9069 C.ar      1 <0>         0.0000
      9 C9          2.4044   -0.0104    2.0131 C.ar      1 <0>         0.0000
     10 C10         1.2382   -2.1252    1.9442 C.ar      1 <0>         0.0000
     11 C11         3.8985   -3.6562    3.9175 C.ar      1 <0>         0.0000
     12 C12         5.0653   -1.5418    3.9856 C.ar      1 <0>         0.0000
     13 C13         0.6598   -0.5173    4.7589 C.ar      1 <0>         0.0000
     14 C14         2.6926   -1.6869    6.2697 C.ar      1 <0>         0.0000
     15 C15         1.7997   -1.0786    2.6757 C.ar      1 <0>         0.0000
     16 C16         3.9267   -2.3023    4.2519 C.ar      1 <0>         0.0000
     17 C17         1.7549   -1.1005    4.1216 C.ar      1 <0>         0.0000
     18 C18         2.7713   -1.6854    4.8770 C.ar      1 <0>         0.0000
     19 H1          1.9184   -1.0176   -1.1978 H         1 <0>         0.0000
     20 H2          7.0123   -3.9517    2.5845 H         1 <0>         0.0000
     21 H3          2.9170    0.8437    0.1033 H         1 <0>         0.0000
     22 H4          0.8428   -2.9182   -0.0187 H         1 <0>         0.0000
     23 H5          4.9872   -5.3041    3.0581 H         1 <0>         0.0000
     24 H6          7.0623   -1.5427    3.1793 H         1 <0>         0.0000
     25 H7         -0.2715   -0.0642    6.6477 H         1 <0>         0.0000
     26 H8          1.5365   -1.1043    7.9913 H         1 <0>         0.0000
     27 H9          2.8463    0.8131    2.5691 H         1 <0>         0.0000
     28 H10         0.7629   -2.9642    2.4469 H         1 <0>         0.0000
     29 H11         3.0184   -4.2626    4.1188 H         1 <0>         0.0000
     30 H12         5.1021   -0.4855    4.2413 H         1 <0>         0.0000
     31 H13        -0.1413   -0.0559    4.1855 H         1 <0>         0.0000
     32 H14         3.4761   -2.1383    6.8740 H         1 <0>         0.0000
@<TRIPOS>BOND
     1    1    3 ar
     2    1    4 ar
     3    2    5 ar
     4    2    6 ar
     5    3    9 ar
     6    4   10 ar
     7    5   11 ar
     8    6   12 ar
     9    7    8 ar
    10    7   13 ar
    11    8   14 ar
    12    9   15 ar
    13   10   15 ar
    14   11   16 ar
    15   12   16 ar
    16   13   17 ar
    17   14   18 ar
    18   15   17 1
    19   16   18 1
    20   17   18 ar
    21    1   19 1
    22    2   20 1
    23    3   21 1
    24    4   22 1
    25    5   23 1
    26    6   24 1
    27    7   25 1
    28    8   26 1
    29    9   27 1
    30   10   28 1
    31   11   29 1
    32   12   30 1
    33   13   31 1
    34   14   32 1
