@<TRIPOS>MOLECULE
*****
   22    23     0     0     0
SMALL
NO_CHARGES

@<TRIPOS>ATOM
      1 C1         -1.6825    1.2244    1.1678 C.ar      1 <0>         0.0000
      2 C2         -0.9585    2.1729    1.8833 C.ar      1 <0>         0.0000
      3 C3          1.0912    1.3138    0.9282 C.ar      1 <0>         0.0000
      4 C4          0.3794    0.3510    0.1949 C.ar      1 <0>         0.0000
      5 C5         -1.0160    0.3119    0.3438 C.ar      1 <0>         0.0000
      6 C6          0.4274    2.2145    1.7670 C.ar      1 <0>         0.0000
      7 C7          1.0172   -0.5999   -0.7340 C.2       1 <0>         0.0000
      8 C8          0.2679   -1.6223   -1.1748 C.2       1 <0>         0.0000
      9 C9          0.7850   -2.6511   -2.0911 C.2       1 <0>         0.0000
     10 C10        -1.1643   -1.7832   -0.7545 C.3       1 <0>         0.0000
     11 N1          0.0614   -3.6303   -2.5101 N.2       1 <0>         0.0000
     12 O1         -1.8103   -0.5752   -0.3343 O.3       1 <0>         0.0000
     13 O2          0.8409   -4.4235   -3.3563 O.3       1 <0>         0.0000
     14 Cl1         1.3269    3.3845    2.6544 Cl        1 <0>         0.0000
     15 Cl2         2.6635   -0.3567   -1.1964 Cl        1 <0>         0.0000
     16 H1         -2.7650    1.1945    1.2594 H         1 <0>         0.0000
     17 H2         -1.4873    2.8716    2.5263 H         1 <0>         0.0000
     18 H3          2.1751    1.3752    0.8584 H         1 <0>         0.0000
     19 H4          1.8377   -2.5199   -2.3902 H         1 <0>         0.0000
     20 H5         -1.7590   -2.1657   -1.5917 H         1 <0>         0.0000
     21 H6         -1.2380   -2.5160    0.0581 H         1 <0>         0.0000
     22 H7          0.2098   -5.1180   -3.6097 H         1 <0>         0.0000
@<TRIPOS>BOND
     1    1    2 ar
     2    1    5 ar
     3    2    6 ar
     4    3    4 ar
     5    3    6 ar
     6    4    5 ar
     7    4    7 1
     8    5   12 1
     9    6   14 1
    10    7    8 2
    11    7   15 1
    12    8    9 1
    13    8   10 1
    14    9   11 2
    15   10   12 1
    16   11   13 1
    17    1   16 1
    18    2   17 1
    19    3   18 1
    20    9   19 1
    21   10   20 1
    22   10   21 1
    23   13   22 1
